<additional>
<!-- Detectors -->
<inductionLoop id="nt14_nt13_det" lane="nt14_nt13_0" pos="5" period="3600" freq="5" file="Fundamental_diagram/nt14_nt13_det.xml"
/>
<inductionLoop id="nt13_nt9_det" lane="nt13_nt9_0" pos="5" period="3600" freq="5" file="Fundamental_diagram/nt13_nt9_det.xml"
/>
<inductionLoop id="nt9_nt5_det" lane="nt9_nt5_0" pos="5" period="3600" freq="5" file="Fundamental_diagram/nt9_nt5_det.xml"
/>
<inductionLoop id="nt5_nt6_det" lane="nt5_nt6_0" pos="5" period="3600" freq="5" file="Fundamental_diagram/nt5_nt6_det.xml"
/>
<inductionLoop id="nt6_nt2_det" lane="nt6_nt2_0" pos="5" period="3600" freq="5" file="Fundamental_diagram/nt6_nt2_det.xml"
/>
<inductionLoop id="nt2_nt3_det" lane="nt2_nt3_0" pos="5" period="3600" freq="5" file="Fundamental_diagram/nt2_nt3_det.xml"
/>
<inductionLoop id="nt3_nt4_det" lane="nt3_nt4_0" pos="5" period="3600" freq="5" file="Fundamental_diagram/nt3_nt4_det.xml"
/>
<inductionLoop id="nt9_nt10_det" lane="nt9_nt10_0" pos="5" period="3600" freq="5" file="Fundamental_diagram/nt9_nt10_det.xml"
/>
<inductionLoop id="nt10_nt6_det" lane="nt10_nt6_0" pos="5" period="3600" freq="5" file="Fundamental_diagram/nt10_nt6_det.xml"
/>
<inductionLoop id="nt6_nt7_det" lane="nt6_nt7_0" pos="5" period="3600" freq="5" file="Fundamental_diagram/nt6_nt7_det.xml"
/>
<inductionLoop id="nt7_nt3_det" lane="nt7_nt3_0" pos="5" period="3600" freq="5" file="Fundamental_diagram/nt7_nt3_det.xml"
/>
<inductionLoop id="nt1_nt2_det" lane="nt1_nt2_0" pos="5" period="3600" freq="5" file="Fundamental_diagram/nt1_nt2_det.xml"
/>
<inductionLoop id="nt2_np2_det" lane="nt2_np2_0" pos="5" period="3600" freq="5" file="Fundamental_diagram/nt2_np2_det.xml"
/>
<inductionLoop id="np2_nt2_det" lane="np2_nt2_0" pos="5" period="3600" freq="5" file="Fundamental_diagram/np2_nt2_det.xml"
/>
<inductionLoop id="nt2_nt6_det" lane="nt2_nt6_0" pos="5" period="3600" freq="5" file="Fundamental_diagram/nt2_nt6_det.xml"
/>
<inductionLoop id="nt13_np13_det" lane="nt13_np13_0" pos="5" period="3600" freq="5" file="Fundamental_diagram/nt13_np13_det.xml"
/>
<inductionLoop id="np13_nt13_det" lane="np13_nt13_0" pos="5" period="3600" freq="5" file="Fundamental_diagram/np13_nt13_det.xml"
/>
<inductionLoop id="nt13_nt14_det" lane="nt13_nt14_0" pos="5" period="3600" freq="5" file="Fundamental_diagram/nt13_nt14_det.xml"
/>
<inductionLoop id="nt14_nt15_det" lane="nt14_nt15_0" pos="5" period="3600" freq="5" file="Fundamental_diagram/nt14_nt15_det.xml"
/>
<inductionLoop id="nt15_nt16_det" lane="nt15_nt16_0" pos="5" period="3600" freq="5" file="Fundamental_diagram/nt15_nt16_det.xml"
/>
<inductionLoop id="nt13_np12_det" lane="nt13_np12_0" pos="5" period="3600" freq="5" file="Fundamental_diagram/nt13_np12_det.xml"
/>
<inductionLoop id="np12_nt13_det" lane="np12_nt13_0" pos="5" period="3600" freq="5" file="Fundamental_diagram/np12_nt13_det.xml"
/>
<inductionLoop id="nt14_np11_det" lane="nt14_np11_0" pos="5" period="3600" freq="5" file="Fundamental_diagram/nt14_np11_det.xml"
/>
<inductionLoop id="np11_nt14_det" lane="np11_nt14_0" pos="5" period="3600" freq="5" file="Fundamental_diagram/np11_nt14_det.xml"
/>
<inductionLoop id="nt6_nt10_det" lane="nt6_nt10_0" pos="5" period="3600" freq="5" file="Fundamental_diagram/nt6_nt10_det.xml"
/>
<inductionLoop id="nt10_nt11_det" lane="nt10_nt11_0" pos="5" period="3600" freq="5" file="Fundamental_diagram/nt10_nt11_det.xml"
/>
<inductionLoop id="nt11_nt15_det" lane="nt11_nt15_0" pos="5" period="3600" freq="5" file="Fundamental_diagram/nt11_nt15_det.xml"
/>
<inductionLoop id="nt3_nt7_det" lane="nt3_nt7_0" pos="5" period="3600" freq="5" file="Fundamental_diagram/nt3_nt7_det.xml"
/>
<inductionLoop id="nt7_nt11_det" lane="nt7_nt11_0" pos="5" period="3600" freq="5" file="Fundamental_diagram/nt7_nt11_det.xml"
/>
</additional>
