<additional>
<!-- Detectors -->
<inductionLoop id="B3A3_det" lane="B3A3_1" pos="5" period="3600" freq="5" file="Fundamental_diagram/B3A3_det.xml"
/>
<inductionLoop id="A3A2_det" lane="A3A2_1" pos="5" period="3600" freq="5" file="Fundamental_diagram/A3A2_det.xml"
/>
<inductionLoop id="A2A1_det" lane="A2A1_1" pos="5" period="3600" freq="5" file="Fundamental_diagram/A2A1_det.xml"
/>
<inductionLoop id="A1A0_det" lane="A1A0_1" pos="5" period="3600" freq="5" file="Fundamental_diagram/A1A0_det.xml"
/>
<inductionLoop id="A0B0_det" lane="A0B0_1" pos="5" period="3600" freq="5" file="Fundamental_diagram/A0B0_det.xml"
/>
<inductionLoop id="A2B2_det" lane="A2B2_1" pos="5" period="3600" freq="5" file="Fundamental_diagram/A2B2_det.xml"
/>
<inductionLoop id="B2B1_det" lane="B2B1_1" pos="5" period="3600" freq="5" file="Fundamental_diagram/B2B1_det.xml"
/>
<inductionLoop id="B1A1_det" lane="B1A1_1" pos="5" period="3600" freq="5" file="Fundamental_diagram/B1A1_det.xml"
/>
<inductionLoop id="B2C2_det" lane="B2C2_1" pos="5" period="3600" freq="5" file="Fundamental_diagram/B2C2_det.xml"
/>
<inductionLoop id="C2C1_det" lane="C2C1_1" pos="5" period="3600" freq="5" file="Fundamental_diagram/C2C1_det.xml"
/>
<inductionLoop id="C1B1_det" lane="C1B1_1" pos="5" period="3600" freq="5" file="Fundamental_diagram/C1B1_det.xml"
/>
<inductionLoop id="D0C0_det" lane="D0C0_1" pos="5" period="3600" freq="5" file="Fundamental_diagram/D0C0_det.xml"
/>
<inductionLoop id="C0C1_det" lane="C0C1_1" pos="5" period="3600" freq="5" file="Fundamental_diagram/C0C1_det.xml"
/>
<inductionLoop id="C0B0_det" lane="C0B0_1" pos="5" period="3600" freq="5" file="Fundamental_diagram/C0B0_det.xml"
/>
<inductionLoop id="B0B1_det" lane="B0B1_1" pos="5" period="3600" freq="5" file="Fundamental_diagram/B0B1_det.xml"
/>
<inductionLoop id="C1C2_det" lane="C1C2_1" pos="5" period="3600" freq="5" file="Fundamental_diagram/C1C2_det.xml"
/>
<inductionLoop id="C2B2_det" lane="C2B2_1" pos="5" period="3600" freq="5" file="Fundamental_diagram/C2B2_det.xml"
/>
<inductionLoop id="C2D2_det" lane="C2D2_1" pos="5" period="3600" freq="5" file="Fundamental_diagram/C2D2_det.xml"
/>
<inductionLoop id="D2D3_det" lane="D2D3_1" pos="5" period="3600" freq="5" file="Fundamental_diagram/D2D3_det.xml"
/>
<inductionLoop id="D3C3_det" lane="D3C3_1" pos="5" period="3600" freq="5" file="Fundamental_diagram/D3C3_det.xml"
/>
<inductionLoop id="A1B1_det" lane="A1B1_1" pos="5" period="3600" freq="5" file="Fundamental_diagram/A1B1_det.xml"
/>
<inductionLoop id="B1C1_det" lane="B1C1_1" pos="5" period="3600" freq="5" file="Fundamental_diagram/B1C1_det.xml"
/>
<inductionLoop id="B1B2_det" lane="B1B2_1" pos="5" period="3600" freq="5" file="Fundamental_diagram/B1B2_det.xml"
/>
<inductionLoop id="C1D1_det" lane="C1D1_1" pos="5" period="3600" freq="5" file="Fundamental_diagram/C1D1_det.xml"
/>
<inductionLoop id="D1D2_det" lane="D1D2_1" pos="5" period="3600" freq="5" file="Fundamental_diagram/D1D2_det.xml"
/>
</additional>
