<routes>
<route id="1" edges="top0A3 D0bottom3"/>
<route id="2" edges="top3D3 A0bottom0"/>
<route id="3" edges='top1B3 A2left2'/>
<route id='4' edges='left3A3 D2right2'/>
<route id='5' edges='left0A0 B3top1'/>
<route id='6' edges='right3D3 D3top3'/>
<route id='7' edges='right0D0 A1left1'/>
<route id='8' edges='bottom1B0 D1right1'/>
<route id='9' edges='bottom2C0 C3top2'/>
</routes>